ERI-UCB-ce40166b-17_Mpro-P2201_0A_0
  -OEChem-12092218553D

 48 51  0     1  0  0  0  0  0999 V2000
    7.0027   -0.8038   18.7660 C   0  0  0  0  0  0  0  0  0  0  0  0
    6.3486   -0.4829   17.5790 C   0  0  0  0  0  0  0  0  0  0  0  0
    6.6587   -0.1593   19.9584 C   0  0  0  0  0  0  0  0  0  0  0  0
    5.3471    0.4837   17.5795 C   0  0  0  0  0  0  0  0  0  0  0  0
    9.6997   -1.2374   24.1687 C   0  0  0  0  0  0  0  0  0  0  0  0
   12.0180   -1.2768   24.8476 C   0  0  0  0  0  0  0  0  0  0  0  0
   10.9372    0.8287   24.3617 C   0  0  0  0  0  0  0  0  0  0  0  0
    5.6539    0.8170   19.9790 C   0  0  0  0  0  0  0  0  0  0  0  0
    5.0050    1.1271   18.7732 C   0  0  0  0  0  0  0  0  0  0  0  0
   10.8327   -1.9523   24.5569 C   0  0  0  0  0  0  0  0  0  0  0  0
    9.7519    0.1531   24.0710 C   0  0  0  0  0  0  0  0  0  0  0  0
   12.0702    0.1137   24.7500 C   0  0  0  0  0  0  0  0  0  0  0  0
    4.2725    2.4593   21.1466 C   0  0  0  0  0  0  0  0  0  0  0  0
    5.2429    1.5344   21.1958 C   0  0  0  0  0  0  0  0  0  0  0  0
    3.5809    2.7931   19.8726 C   0  0  0  0  0  0  0  0  0  0  0  0
    9.8780   -5.2091   27.0394 C   0  0  0  0  0  0  0  0  0  0  0  0
    5.8249    1.3248   22.5286 C   0  0  0  0  0  0  0  0  0  0  0  0
    9.9805   -3.6755   27.0152 C   0  0  0  0  0  0  0  0  0  0  0  0
   11.0599   -3.8810   25.9296 C   0  0  1  0  0  0  0  0  0  0  0  0
    7.0317    2.5119   24.3481 C   0  0  0  0  0  0  0  0  0  0  0  0
    8.5044    2.1733   24.2071 C   0  0  0  0  0  0  0  0  0  0  0  0
    3.9916    2.1015   18.7541 N   0  0  0  0  0  0  0  0  0  0  0  0
   10.8200   -5.3125   26.0660 N   0  0  0  0  0  0  0  0  0  0  0  0
    6.3982    2.4700   23.0496 N   0  0  0  0  0  0  0  0  0  0  0  0
    2.6967    3.6470   19.8599 O   0  0  0  0  0  0  0  0  0  0  0  0
    9.2395   -6.0351   27.6495 O   0  0  0  0  0  0  0  0  0  0  0  0
    5.7739    0.2240   23.0721 O   0  0  0  0  0  0  0  0  0  0  0  0
   10.7815   -3.3092   24.6524 O   0  0  0  0  0  0  0  0  0  0  0  0
    8.6387    0.8555   23.6901 O   0  0  0  0  0  0  0  0  0  0  0  0
   13.5323    0.9470   25.1103 Cl  0  0  0  0  0  0  0  0  0  0  0  0
    7.7843   -1.5583   18.7659 H   0  0  0  0  0  0  0  0  0  0  0  0
    6.6189   -0.9860   16.6554 H   0  0  0  0  0  0  0  0  0  0  0  0
    7.1958   -0.4422   20.8586 H   0  0  0  0  0  0  0  0  0  0  0  0
    4.8405    0.7281   16.6496 H   0  0  0  0  0  0  0  0  0  0  0  0
    8.7761   -1.7641   23.9427 H   0  0  0  0  0  0  0  0  0  0  0  0
   12.8971   -1.8413   25.1496 H   0  0  0  0  0  0  0  0  0  0  0  0
   10.9693    1.9129   24.2833 H   0  0  0  0  0  0  0  0  0  0  0  0
    3.9429    3.0083   22.0236 H   0  0  0  0  0  0  0  0  0  0  0  0
    9.0635   -3.1794   26.6866 H   0  0  0  0  0  0  0  0  0  0  0  0
   10.3357   -3.2357   27.9504 H   0  0  0  0  0  0  0  0  0  0  0  0
   12.0699   -3.6143   26.2607 H   0  0  0  0  0  0  0  0  0  0  0  0
    6.5211    1.7978   25.0019 H   0  0  0  0  0  0  0  0  0  0  0  0
    6.9099    3.5204   24.7547 H   0  0  0  0  0  0  0  0  0  0  0  0
    8.9912    2.2030   25.1869 H   0  0  0  0  0  0  0  0  0  0  0  0
    9.0149    2.8694   23.5337 H   0  0  0  0  0  0  0  0  0  0  0  0
    3.5421    2.3048   17.8658 H   0  0  0  0  0  0  0  0  0  0  0  0
   11.2168   -6.1301   25.6236 H   0  0  0  0  0  0  0  0  0  0  0  0
    6.3730    3.3206   22.4946 H   0  0  0  0  0  0  0  0  0  0  0  0
  1  2  1  0  0  0  0
  1  3  2  0  0  0  0
  2  4  2  0  0  0  0
  3  8  1  0  0  0  0
  4  9  1  0  0  0  0
  5 10  2  0  0  0  0
  5 11  1  0  0  0  0
  6 10  1  0  0  0  0
  6 12  2  0  0  0  0
  7 11  2  0  0  0  0
  7 12  1  0  0  0  0
  8  9  2  0  0  0  0
  8 14  1  0  0  0  0
  9 22  1  0  0  0  0
 10 28  1  0  0  0  0
 11 29  1  0  0  0  0
 12 30  1  0  0  0  0
 13 14  2  0  0  0  0
 13 15  1  0  0  0  0
 14 17  1  0  0  0  0
 15 22  1  0  0  0  0
 15 25  2  0  0  0  0
 16 18  1  0  0  0  0
 16 23  1  0  0  0  0
 16 26  2  0  0  0  0
 17 24  1  0  0  0  0
 17 27  2  0  0  0  0
 18 19  1  0  0  0  0
 19 23  1  0  0  0  0
 19 28  1  0  0  0  0
 20 21  1  0  0  0  0
 20 24  1  0  0  0  0
 21 29  1  0  0  0  0
  1 31  1  0  0  0  0
  2 32  1  0  0  0  0
  3 33  1  0  0  0  0
  4 34  1  0  0  0  0
  5 35  1  0  0  0  0
  6 36  1  0  0  0  0
  7 37  1  0  0  0  0
 13 38  1  0  0  0  0
 18 39  1  0  0  0  0
 18 40  1  0  0  0  0
 19 41  1  0  0  0  0
 20 42  1  0  0  0  0
 20 43  1  0  0  0  0
 21 44  1  0  0  0  0
 21 45  1  0  0  0  0
 22 46  1  0  0  0  0
 23 47  1  0  0  0  0
 24 48  1  0  0  0  0
M  END
> <SMILES>
c1ccc2c(c1)c(cc(=O)[nH]2)C(=O)NCCOc3cc(cc(c3)Cl)O[C@H]4CC(=O)N4

> <Dataset>
Mpro-P0008

> <Compound_ID>
ERI-UCB-ce40166b-17

> <Docking_posit_none_RMSD>
25.02573964776719

> <Docking_posit_none_POSIT>
0.23999999463558197

> <Docking_posit_none_POSIT_method>
FRED

> <Docking_posit_none_Chemgauss4>
-10.404733657836914

> <Docking_posit_none_clash>
-1

$$$$
